


 29 32  0  0  0  0  0  0  0  0999 V2000
   -9.4924    9.2040   37.4518 C   0  0  0  0  0  0  0  0  0  0  0  0
   -8.2056    9.9964   37.2046 C   0  0  0  0  0  0  0  0  0  0  0  0
   -7.8975    9.8409   35.7207 C   0  0  0  0  0  0  0  0  0  0  0  0
   -8.8640    8.7712   35.1643 C   0  0  0  0  0  0  0  0  0  0  0  0
   -9.0694    8.7919   33.6135 C   0  0  0  0  0  0  0  0  0  0  0  0
   -8.1824    9.8142   32.8724 C   0  0  0  0  0  0  0  0  0  0  0  0
   -8.3549    9.7897   31.3579 C   0  0  0  0  0  0  0  0  0  0  0  0
   -9.8184   10.0235   30.9833 C   0  0  0  0  0  0  0  0  0  0  0  0
   -9.9894   10.1398   29.4613 C   0  0  0  0  0  0  0  0  0  0  0  0
  -11.4413   10.4275   29.0795 C   0  0  0  0  0  0  0  0  0  0  0  0
  -11.5832   10.3776   27.6632 O   0  0  0  0  0  0  0  0  0  0  0  0
  -12.4206    9.4360   29.7044 C   0  0  0  0  0  0  0  0  0  0  0  0
  -12.2165    9.3039   31.2158 C   0  0  0  0  0  0  0  0  0  0  0  0
  -10.7532    8.9516   31.6112 C   0  0  0  0  0  0  0  0  0  0  0  0
  -10.4444    7.5261   31.0603 C   0  0  0  0  0  0  0  0  0  0  0  0
  -10.5587    8.9017   33.1821 C   0  0  0  0  0  0  0  0  0  0  0  0
  -11.2800   10.0173   33.9646 C   0  0  0  0  0  0  0  0  0  0  0  0
  -10.9623   10.1067   35.4685 C   0  0  0  0  0  0  0  0  0  0  0  0
  -10.1337    8.9465   36.0414 C   0  0  0  0  0  0  0  0  0  0  0  0
  -10.9896    7.6653   36.1595 C   0  0  0  0  0  0  0  0  0  0  0  0
  -10.9475   11.0072   27.2808 H   0  0  0  0  0  0  0  0  0  0  0  0
  -10.3952    9.7213   38.6094 C   0  0  0  0  0  0  0  0  0  0  0  0
  -11.4061    8.6124   38.9709 C   0  0  0  0  0  0  0  0  0  0  0  0
   -9.6585   10.1663   39.8938 C   0  0  0  0  0  0  0  0  0  0  0  0
   -8.8230   11.4496   39.7348 C   0  0  0  0  0  0  0  0  0  0  0  0
   -7.9044   11.7533   40.9222 C   0  0  0  0  0  0  0  0  0  0  0  0
   -9.2395   12.9738   42.7244 C   0  0  0  0  0  0  0  0  0  0  0  0
   -8.5710   11.6623   42.3092 C   0  0  0  0  0  0  0  0  0  0  0  0
   -7.6011   11.1913   43.3916 C   0  0  0  0  0  0  0  0  0  0  0  0
 27 28  1  0
 28 29  1  0
 28 26  1  0
 26 25  1  0
 25 24  1  0
 24 22  1  0
 22 23  1  0
 22  1  1  0
  1  2  1  0
  2  3  1  0
  3  4  1  0
  4  5  1  0
  5  6  1  0
  6  7  1  0
  7  8  1  0
  8  9  1  0
  9 10  1  0
 10 11  1  0
 10 12  1  0
 12 13  1  0
 13 14  1  0
 14 15  1  0
 14 16  1  0
 16 17  1  0
 17 18  1  0
 18 19  1  0
 19 20  1  0
 19  1  1  0
 19  4  1  0
 16  5  1  0
 14  8  1  0
 11 21  1  0
M  END
> <minimizedAffinity>
-7.50364

> <CNNscore>
0.7939259410

> <CNNaffinity>
7.1108264923

> <CNN_VS>
5.6454696655

> <CNNaffinity_variance>
0.1650603861

$$$$
