


 29 32  0  0  0  0  0  0  0  0999 V2000
  -10.3879   10.3038   36.7047 C   0  0  0  0  0  0  0  0  0  0  0  0
  -10.1024   11.7390   36.2673 C   0  0  0  0  0  0  0  0  0  0  0  0
   -9.5454   11.6663   34.8532 C   0  0  0  0  0  0  0  0  0  0  0  0
   -9.2380   10.1984   34.6176 C   0  0  0  0  0  0  0  0  0  0  0  0
   -9.2188    9.8848   33.1432 C   0  0  0  0  0  0  0  0  0  0  0  0
   -8.1389    8.9029   32.7664 C   0  0  0  0  0  0  0  0  0  0  0  0
   -7.8738    8.9313   31.2728 C   0  0  0  0  0  0  0  0  0  0  0  0
   -9.0769    9.3321   30.4366 C   0  0  0  0  0  0  0  0  0  0  0  0
   -8.9209   10.7636   29.9606 C   0  0  0  0  0  0  0  0  0  0  0  0
  -10.1909   11.5724   30.0679 C   0  0  0  0  0  0  0  0  0  0  0  0
  -10.0344   12.7636   29.3187 O   0  0  0  0  0  0  0  0  0  0  0  0
  -11.3776   10.8107   29.5324 C   0  0  0  0  0  0  0  0  0  0  0  0
  -11.5788    9.4727   30.2128 C   0  0  0  0  0  0  0  0  0  0  0  0
  -10.4215    8.9923   31.0769 C   0  0  0  0  0  0  0  0  0  0  0  0
  -10.5320    7.4751   31.1344 C   0  0  0  0  0  0  0  0  0  0  0  0
  -10.5514    9.6018   32.4784 C   0  0  0  0  0  0  0  0  0  0  0  0
  -11.5607    8.8851   33.3514 C   0  0  0  0  0  0  0  0  0  0  0  0
  -11.6341    9.4670   34.7418 C   0  0  0  0  0  0  0  0  0  0  0  0
  -10.2827    9.4607   35.4371 C   0  0  0  0  0  0  0  0  0  0  0  0
   -9.8635    8.0311   35.7110 C   0  0  0  0  0  0  0  0  0  0  0  0
   -9.8741   12.5416   28.3881 H   0  0  0  0  0  0  0  0  0  0  0  0
   -9.5129    9.8634   37.8627 C   0  0  0  0  0  0  0  0  0  0  0  0
   -8.1524   10.5184   37.9243 C   0  0  0  0  0  0  0  0  0  0  0  0
  -10.2300    9.8973   39.1920 C   0  0  0  0  0  0  0  0  0  0  0  0
  -10.9080    8.5917   39.5398 C   0  0  0  0  0  0  0  0  0  0  0  0
  -11.0516    8.4806   41.0374 C   0  0  0  0  0  0  0  0  0  0  0  0
  -10.7536    6.9492   42.9427 C   0  0  0  0  0  0  0  0  0  0  0  0
  -11.0513    7.0321   41.4655 C   0  0  0  0  0  0  0  0  0  0  0  0
  -12.3996    6.4067   41.1972 C   0  0  0  0  0  0  0  0  0  0  0  0
 27 28  1  0
 28 29  1  0
 28 26  1  0
 26 25  1  0
 25 24  1  0
 24 22  1  0
 22 23  1  0
 22  1  1  0
  1  2  1  0
  1 19  1  0
  2  3  1  0
  3  4  1  0
  4  5  1  0
  4 19  1  0
  5  6  1  0
  5 16  1  0
  6  7  1  0
  7  8  1  0
  8  9  1  0
  8 14  1  0
  9 10  1  0
 10 11  1  0
 10 12  1  0
 12 13  1  0
 13 14  1  0
 14 15  1  0
 14 16  1  0
 16 17  1  0
 17 18  1  0
 18 19  1  0
 19 20  1  0
 11 21  1  0
M  END
> <minimizedAffinity>
-7.58583

> <CNNscore>
0.7728730440

> <CNNaffinity>
6.1856164932

> <CNN_VS>
4.7806963921

$$$$
