


 29 32  0  0  0  0  0  0  0  0999 V2000
  -11.0849   13.5626   27.2825 C   0  0  0  0  0  0  0  0  0  0  0  0
  -11.0569   14.1978   25.8721 C   0  0  0  0  0  0  0  0  0  0  0  0
   -9.6638   14.6853   25.5571 C   0  0  0  0  0  0  0  0  0  0  0  0
   -8.6630   13.4947   25.6406 C   0  0  0  0  0  0  0  0  0  0  0  0
   -9.0149   12.2355   26.5123 C   0  0  0  0  0  0  0  0  0  0  0  0
   -7.7401   11.6784   27.1096 C   0  0  0  0  0  0  0  0  0  0  0  0
   -7.8162   10.7863   28.4301 C   0  0  0  0  0  0  0  0  0  0  0  0
   -8.8986   11.3173   29.4645 C   0  0  0  0  0  0  0  0  0  0  0  0
  -10.2594   11.8355   28.8773 C   0  0  0  0  0  0  0  0  0  0  0  0
  -10.3230   12.2232   27.3362 C   0  0  0  0  0  0  0  0  0  0  0  0
  -11.5151   11.0838   29.4163 C   0  0  0  0  0  0  0  0  0  0  0  0
  -11.4354   10.8269   30.9911 C   0  0  0  0  0  0  0  0  0  0  0  0
  -10.2750    9.8085   31.2455 C   0  0  0  0  0  0  0  0  0  0  0  0
   -8.9571   10.4150   30.7437 C   0  0  0  0  0  0  0  0  0  0  0  0
   -7.9700    9.3091   31.0375 C   0  0  0  0  0  0  0  0  0  0  0  0
   -8.4105    8.8375   32.4736 C   0  0  0  0  0  0  0  0  0  0  0  0
   -9.8181    9.5062   32.7351 C   0  0  0  0  0  0  0  0  0  0  0  0
  -10.6219    8.4713   30.5819 C   0  0  0  0  0  0  0  0  0  0  0  0
  -11.2378   11.2221   26.6109 C   0  0  0  0  0  0  0  0  0  0  0  0
   -9.5794   15.5013   24.4028 O   0  0  0  0  0  0  0  0  0  0  0  0
   -9.8320   14.9841   23.6221 H   0  0  0  0  0  0  0  0  0  0  0  0
  -10.8704    8.8297   33.7028 C   0  0  0  0  0  0  0  0  0  0  0  0
  -12.0787    9.7455   33.9338 C   0  0  0  0  0  0  0  0  0  0  0  0
  -10.3317    8.1460   35.0275 C   0  0  0  0  0  0  0  0  0  0  0  0
   -9.1994    8.8289   35.8632 C   0  0  0  0  0  0  0  0  0  0  0  0
   -9.6109    9.9221   36.8843 C   0  0  0  0  0  0  0  0  0  0  0  0
   -9.0389    9.8708   38.3341 C   0  0  0  0  0  0  0  0  0  0  0  0
  -10.1057    9.7504   39.4228 C   0  0  0  0  0  0  0  0  0  0  0  0
   -8.0292   10.9772   38.6157 C   0  0  0  0  0  0  0  0  0  0  0  0
 20  3  1  0
  3  4  1  0
  3  2  1  0
  4  5  1  0
  2  1  1  0
  5  6  1  0
  5 10  1  0
  1 10  1  0
  6  7  1  0
 10 19  1  0
 10  9  1  0
  9  8  1  0
  9 11  1  0
  7  8  1  0
  8 14  1  0
 11 12  1  0
 14 15  1  0
 14 13  1  0
 12 13  1  0
 15 16  1  0
 13 18  1  0
 13 17  1  0
 17 16  1  0
 17 22  1  0
 22 23  1  0
 22 24  1  0
 24 25  1  0
 25 26  1  0
 26 27  1  0
 29 27  1  0
 27 28  1  0
 20 21  1  0
M  END
> <minimizedAffinity>
-7.98519

> <CNNscore>
0.6234632730

> <CNNaffinity>
6.5389170647

> <CNN_VS>
4.0767745972

> <CNNaffinity_variance>
0.0254079401

$$$$
